/*--------------------------------*- C++ -*----------------------------------*\
| =========                 |                                                 |
| \\      /  F ield         | OpenFOAM: The Open Source CFD Toolbox           |
|  \\    /   O peration     | Version:  v2006                                 |
|   \\  /    A nd           | Web:      http://www.OpenFOAM.org               |
|    \\/     M anipulation  |                                                 |
\*---------------------------------------------------------------------------*/
FoamFile
{
    version     2.0;
    format      ascii;
    class       volScalarField;
    object      p;
}
// * * * * * * * * * * * * * * * * * * * * * * * * * * * * * * * * * * * * * //

dimensions      [1 -1 -2 0 0 0 0];

internalField   uniform 1; //0.31746;

boundaryField
{
    bottomWall      
    {
        type            zeroGradient;
    }

    topWall         
    {
        type            zeroGradient;
    }

    sides1          
    {
        type            cyclic;
    }

    sides2          
    {
        type            cyclic;
    }

    inout1          
    {
        type            cyclic;
    }

    inout2          
    {
        type            cyclic;
    }
}

// ************************************************************************* //
